4
R0102 1 2 1E4
R0301 3 1 1E4
C0300 3 0 1E-9
C0401 4 1 1E-9
O0400 4 0 4 3
V0200 2 0 SIN 0 10 15900 0 0 0 100
.TRAN 6E-3 6E-7 TRAP 1
