1
N0100 1 0 -2 0 -1 1 1 -1 2 0
N0100 1 0 -3 2 -2 0 2 0 3 -2
I0001 0 1 SIN 0 2 1 0 0 0 1000
.TRAN 3 3E-3 TRAP 1
