1
R0102 1 0 1
V0200 1 0 SIN 0 1 1 0 5E-1 0 0
.TRAN 1 0.01 TRAP 1
