2
R0100 1 0 1
C0102 1 2 1.5915E-3
V0200 2 0 10 0 0
.AC DEC 100 0.1 10000
