2
M7 1 2 0 0 PMOS L=1E-6 W=1E-6 1E-4 1 0.01 0.3 0.6 0.1E-6
V0002 0 2 1 0 2
V0001 0 1 0 0 10
.AC DEC 10 1000 1E9
