3
R0100 1 0 1
R0201 2 1 1
R0203 2 3 1
V0100 1 0 1
V0300 3 0 1
.AC DEC 10 0.1 100
