3
L1 1 0 1
L2 2 0 1
C0200 2 0 1
C0103 1 3 1
V0300 3 0 1 0 10
K12 L1 L2 0.1
.AC DEC 1000 0.1 1
