1
R0102 1 0 1
V0200 1 0 SIN 1 1 2 0 0 0 100
.TRAN 2 0.01 TRAP 1
