1
NLOUCO 1 0 -1 0 1 -1 -1 1 0 -1
*NDIODO 1 0 -1 0 0.3 0 0.7 0.5 1 10
NVPORI 1 0 -1 -1 0 1 0 -1 1 1
NIPORV 1 0 -1 -1 1 0 -1 0 1 1
V0200 1 0 SIN 0 2 2 0 0 0 100
.TRAN 1 0.001 TRAP 1
*
*            e1
*     |---------------|
*     |               |
*    電               R
*    圧               R
*    源               R
*     |               |
*    GND             GND
*
*
